LAMMPS (31 Mar 2017)
# MD Run Graphene&CarbonNanotube

dimension	3
boundary	p p p

units       real
atom_style	full

read_data  ethanol.lammps
  orthogonal box = (-3 -2.338 -3) to (3 2.338 3)
  reading atoms ...
  9 atoms
  scanning bonds ...
  scanning angles ...
  scanning impropers ...
  reading bonds ...
  8 bonds
  reading angles ...
  13 angles
  reading impropers ...
  12 impropers
replicate 10 10 10
  orthogonal box = (-3 -2.338 -3) to (57 44.422 57)
  9000 atoms
  8000 bonds
  13000 angles
  12000 impropers
#read_restart	res.300000

group Hydrogen type 4 5 6 7 8 9
6000 atoms in group Hydrogen
group Oxygen type 3
1000 atoms in group Oxygen
group Carbon type 1 2
2000 atoms in group Carbon
group ethanol union Hydrogen Oxygen Carbon
9000 atoms in group ethanol
group vmd union ethanol
9000 atoms in group vmd

############################
############################

pair_style      lj/cut/coul/long 15.0
pair_coeff      *   *    0.000 0.000
pair_coeff      1   1    0.118 3.905 #C1-C1
pair_coeff      2   2    0.207 3.775 #C2-C2
pair_coeff      3   3    0.170 3.070 #O-O
pair_coeff      1   2    0.156 3.840 #C1-C2
pair_coeff      1   3    0.142 3.488 #C1-O
pair_coeff      2   3    0.188 3.423 #C2-O
kspace_style pppm 1.0e-5

bond_style harmonic
bond_coeff 1 222. 1.52
bond_coeff 2 309. 1.11
bond_coeff 3 428. 1.42
bond_coeff 4 545. 0.94

angle_style harmonic
angle_coeff 1 45.90 109.44
angle_coeff 2 34.60 109.46
angle_coeff 3 35.50 120.00
angle_coeff 4 75.70 109.00
angle_coeff 5 57.50 109.50
angle_coeff 6 35.50 109.50
angle_coeff 7 34.60 109.46

improper_style harmonic
improper_coeff 1  1.30  180
improper_coeff 2  0.14  60
improper_coeff 3  0.14 -60
improper_coeff 4  0.16  180
improper_coeff 5  0.16  60
improper_coeff 6  0.16 -60
improper_coeff 7  0.16 -60
improper_coeff 8  0.16  180
improper_coeff 9  0.16  60
improper_coeff 10 0.16  60
improper_coeff 11 0.16 -60
improper_coeff 12 0.16 -180

#neighbor       2.0 nsq
neigh_modify    every 1 delay 0 check no
#special_bonds lj/coul 0.0 0.0 0.0

##############################

#compute myRDF Oxygen  rdf 1000 3 3 # O-O
#fix 10 Oxygen  ave/time 10 100 1000 c_myRDF file rdf.dat mode vector #ave running

####################

#variable dl equal 2.8
#variable vp equal ((lx-v_dl)*(ly-v_dl)*(lz-v_dl)) #effective volume
variable Den equal (46.06844*count(Oxygen)/vol*1.66054) #gr/cm3
variable Eb  equal etotal/count(Oxygen)
variable Pb  equal pe/count(Oxygen)

################################## Energies

restart		100000 res

####################

thermo          100
thermo_style    custom step temp pe etotal press v_Pb v_Eb v_Den #lx ly lz

dump           1 vmd xyz 1000 dump.xyz
dump_modify	   1 sort id element C C O H H H H H H

#################### relaxing

#timestep 		0.01
#velocity   	vmd create 10 21234 dist gaussian mom yes rot yes
#fix        	rlx vmd nvt temp 300 300 1

#run 			1000
#unfix			rlx

# -------------------

timestep 		1.0
velocity   		vmd create 10 21234 dist gaussian mom yes rot yes
fix        		rlx vmd npt temp 300 300 100 iso 1 1 1000 #z 1 1 1000 couple xz

run 			200000
PPPM initialization ...
  G vector (1/distance) = 0.182631
  grid = 24 18 24
  stencil order = 5
  estimated absolute RMS force accuracy = 0.00256539
  estimated relative force accuracy = 7.72561e-06
  3d grid and FFT values/proc = 2618 864
  update every 1 steps, delay 0 steps, check no
Step Temp PotEng TotEng Press v_Pb v_Eb v_Den
0           10    18833.296    19101.539   -12228.406    18.833296    19.101539   0.45443926
Averages over the last 1001 of 2001 rows, steps 100000 to 200000:
Temp PotEng TotEng Press v_Pb v_Eb v_Den
300.042 3091.14 11139.6 -4.72098 3.09114 11.1396 0.885476
Loop time of 6243.89 on 20 procs for 200000 steps with 9000 atoms

unfix			rlx

write_data 		rlx.lmp
PPPM initialization ...
  G vector (1/distance) = 0.186633
  grid = 20 16 20
  stencil order = 5
  estimated absolute RMS force accuracy = 0.0025649
  estimated relative force accuracy = 7.72411e-06
  3d grid and FFT values/proc = 1755 320
